2-nitrophenanthrene
csChmFindW1207992328
[comments]
 17 19  0     0  0  0  0  0  0  1 V2000
    0.6533    2.4267    0.0000 C   0  0  0  0  0  0  0  0  0  0
    0.0000    1.2133    0.0000 C   0  0  0  0  0  0  0  0  0  0
    0.6533   -0.0000    0.0000 C   0  0  0  0  0  0  0  0  0  0
    2.0533   -0.0000    0.0000 C   0  0  0  0  0  0  0  0  0  0
    2.7533    1.2133    0.0000 C   0  0  0  0  0  0  0  0  0  0
    2.0533    2.4267    0.0000 C   0  0  0  0  0  0  0  0  0  0
    4.1533    1.2133    0.0000 C   0  0  0  0  0  0  0  0  0  0
    4.8533    2.4267    0.0000 C   0  0  0  0  0  0  0  0  0  0
    4.1533    3.5933    0.0000 C   0  0  0  0  0  0  0  0  0  0
    2.7533    3.5933    0.0000 C   0  0  0  0  0  0  0  0  0  0
    4.8533   -0.0000    0.0000 C   0  0  0  0  0  0  0  0  0  0
    6.2533   -0.0000    0.0000 C   0  0  0  0  0  0  0  0  0  0
    7.0000    1.2133    0.0000 C   0  0  0  0  0  0  0  0  0  0
    6.2533    2.4267    0.0000 C   0  0  0  0  0  0  0  0  0  0
    8.4000    1.2133    0.0000 N   0  3  0  0  0  0  0  0  0  0
    9.1000   -0.0000    0.0000 O   0  5  0  0  0  0  0  0  0  0
    9.1000    2.4267    0.0000 O   0  0  0  0  0  0  0  0  0  0
  1  2  4  0  0  0  0
  2  3  4  0  0  0  0
  3  4  4  0  0  0  0
  4  5  4  0  0  0  0
  5  6  4  0  0  0  0
  1  6  4  0  0  0  0
  5  7  4  0  0  0  0
  7  8  4  0  0  0  0
  8  9  4  0  0  0  0
  9 10  4  0  0  0  0
  6 10  4  0  0  0  0
  7 11  4  0  0  0  0
 11 12  4  0  0  0  0
 12 13  4  0  0  0  0
 13 14  4  0  0  0  0
  8 14  4  0  0  0  0
 13 15  1  0  0  0  0
 15 16  1  0  0  0  0
 15 17  2  0  0  0  0
M  END
>  <Compound Name> (1)
2-nitrophenanthrene

>  <Formula> (1)
C14H9NO2

>  <LogP> (1)
4.23

>  <LUMO> (1)
-1.246

>  <MOL_ID> (1)
1

>  <Activity> (1)
2.11

$$$$
8-nitroquinoline
csChmFindW1207992328
[comments]
 13 14  0     0  0  0  0  0  0  1 V2000
   -0.0000    2.7985    0.0000 C   0  0  0  0  0  0  0  0  0  0
    1.1660    2.0988    0.0000 C   0  0  0  0  0  0  0  0  0  0
    2.3787    2.7985    0.0000 C   0  0  0  0  0  0  0  0  0  0
    2.3787    4.1977    0.0000 C   0  0  0  0  0  0  0  0  0  0
    1.1660    4.8973    0.0000 C   0  0  0  0  0  0  0  0  0  0
   -0.0000    4.1977    0.0000 C   0  0  0  0  0  0  0  0  0  0
    3.5913    2.0988    0.0000 N   0  0  0  0  0  0  0  0  0  0
    4.8040    2.7985    0.0000 C   0  0  0  0  0  0  0  0  0  0
    4.8040    4.1977    0.0000 C   0  0  0  0  0  0  0  0  0  0
    3.5913    4.8973    0.0000 C   0  0  0  0  0  0  0  0  0  0
    1.1660    0.6996    0.0000 N   0  3  0  0  0  0  0  0  0  0
   -0.0000    0.0000    0.0000 O   0  5  0  0  0  0  0  0  0  0
    2.3787    0.0000    0.0000 O   0  0  0  0  0  0  0  0  0  0
  1  2  4  0  0  0  0
  2  3  4  0  0  0  0
  3  4  4  0  0  0  0
  4  5  4  0  0  0  0
  5  6  4  0  0  0  0
  1  6  4  0  0  0  0
  3  7  4  0  0  0  0
  7  8  4  0  0  0  0
  8  9  4  0  0  0  0
  9 10  4  0  0  0  0
  4 10  4  0  0  0  0
  2 11  1  0  0  0  0
 11 12  1  0  0  0  0
 11 13  2  0  0  0  0
M  END
>  <Compound Name> (2)
8-nitroquinoline

>  <Formula> (2)
C9H6N2O2

>  <LogP> (2)
1.44

>  <LUMO> (2)
-1.429

>  <MOL_ID> (2)
2

>  <Activity> (2)
-1.24

$$$$
5-nitroquinoline
csChmFindW1207992328
[comments]
 13 14  0     0  0  0  0  0  0  1 V2000
   -0.0000    0.6996    0.0000 C   0  0  0  0  0  0  0  0  0  0
    1.1660    0.0000    0.0000 C   0  0  0  0  0  0  0  0  0  0
    2.3787    0.6996    0.0000 C   0  0  0  0  0  0  0  0  0  0
    2.3787    2.0989    0.0000 C   0  0  0  0  0  0  0  0  0  0
    1.1660    2.7985    0.0000 C   0  0  0  0  0  0  0  0  0  0
   -0.0000    2.0989    0.0000 C   0  0  0  0  0  0  0  0  0  0
    3.5914    0.0000    0.0000 N   0  0  0  0  0  0  0  0  0  0
    4.8040    0.6996    0.0000 C   0  0  0  0  0  0  0  0  0  0
    4.8040    2.0989    0.0000 C   0  0  0  0  0  0  0  0  0  0
    3.5914    2.7985    0.0000 C   0  0  0  0  0  0  0  0  0  0
    1.1660    4.1977    0.0000 N   0  3  0  0  0  0  0  0  0  0
    2.3787    4.8973    0.0000 O   0  5  0  0  0  0  0  0  0  0
   -0.0000    4.8973    0.0000 O   0  0  0  0  0  0  0  0  0  0
  1  2  4  0  0  0  0
  2  3  4  0  0  0  0
  3  4  4  0  0  0  0
  4  5  4  0  0  0  0
  5  6  4  0  0  0  0
  1  6  4  0  0  0  0
  3  7  4  0  0  0  0
  7  8  4  0  0  0  0
  8  9  4  0  0  0  0
  9 10  4  0  0  0  0
  4 10  4  0  0  0  0
  5 11  1  0  0  0  0
 11 12  1  0  0  0  0
 11 13  2  0  0  0  0
M  END
>  <Compound Name> (3)
5-nitroquinoline

>  <Formula> (3)
C9H6N2O2

>  <LogP> (3)
1.86

>  <LUMO> (3)
-1.456

>  <MOL_ID> (3)
3

>  <Activity> (3)
-0.96

$$$$
1-nitrofluoranthene
csChmFindW1207992328
[comments]
 19 22  0     0  0  0  0  0  0  1 V2000
    2.2867    2.0067    0.0000 C   0  0  0  0  0  0  0  0  0  0
    2.2867    0.7000    0.0000 C   0  0  0  0  0  0  0  0  0  0
    3.5467    0.0467    0.0000 C   0  0  0  0  0  0  0  0  0  0
    4.5733    0.7933    0.0000 C   0  0  0  0  0  0  0  0  0  0
    4.5733    2.1933    0.0000 C   0  0  0  0  0  0  0  0  0  0
    3.3133    2.8933    0.0000 C   0  0  0  0  0  0  0  0  0  0
    1.1667    2.8000    0.0000 C   0  0  0  0  0  0  0  0  0  0
    0.0000    2.1000    0.0000 C   0  0  0  0  0  0  0  0  0  0
    0.0000    0.7000    0.0000 C   0  0  0  0  0  0  0  0  0  0
    1.1667    0.0000    0.0000 C   0  0  0  0  0  0  0  0  0  0
    2.9867    4.1533    0.0000 C   0  0  0  0  0  0  0  0  0  0
    1.5867    4.1533    0.0000 C   0  0  0  0  0  0  0  0  0  0
    3.6867    5.3667    0.0000 C   0  0  0  0  0  0  0  0  0  0
    2.9867    6.5800    0.0000 C   0  0  0  0  0  0  0  0  0  0
    1.5867    6.5800    0.0000 C   0  0  0  0  0  0  0  0  0  0
    0.8867    5.3667    0.0000 C   0  0  0  0  0  0  0  0  0  0
    5.7867    2.8933    0.0000 N   0  3  0  0  0  0  0  0  0  0
    7.0000    2.1933    0.0000 O   0  5  0  0  0  0  0  0  0  0
    5.7867    4.2933    0.0000 O   0  0  0  0  0  0  0  0  0  0
  1  2  4  0  0  0  0
  2  3  4  0  0  0  0
  3  4  4  0  0  0  0
  4  5  4  0  0  0  0
  5  6  4  0  0  0  0
  1  6  4  0  0  0  0
  1  7  4  0  0  0  0
  7  8  4  0  0  0  0
  8  9  4  0  0  0  0
  9 10  4  0  0  0  0
  2 10  4  0  0  0  0
  6 11  1  0  0  0  0
 11 12  4  0  0  0  0
  7 12  1  0  0  0  0
 11 13  4  0  0  0  0
 13 14  4  0  0  0  0
 14 15  4  0  0  0  0
 15 16  4  0  0  0  0
 12 16  4  0  0  0  0
  5 17  1  0  0  0  0
 17 18  1  0  0  0  0
 17 19  2  0  0  0  0
M  END
>  <Compound Name> (4)
1-nitrofluoranthene

>  <Formula> (4)
C16H9NO2

>  <LogP> (4)
4.69

>  <LUMO> (4)
-1.591

>  <MOL_ID> (4)
4

>  <Activity> (4)
2.74

$$$$
2,5-difluoronitrobenzene
csChmFindW1207992328
[comments]
 11 11  0     0  0  0  0  0  0  1 V2000
   -0.0000    2.4267    0.0000 C   0  0  0  0  0  0  0  0  0  0
    0.6533    1.2133    0.0000 C   0  0  0  0  0  0  0  0  0  0
    2.0533    1.2133    0.0000 C   0  0  0  0  0  0  0  0  0  0
    2.7533    2.4267    0.0000 C   0  0  0  0  0  0  0  0  0  0
    2.0533    3.6400    0.0000 C   0  0  0  0  0  0  0  0  0  0
    0.6533    3.6400    0.0000 C   0  0  0  0  0  0  0  0  0  0
    4.1533    2.4267    0.0000 N   0  3  0  0  0  0  0  0  0  0
    4.8533    1.2133    0.0000 O   0  5  0  0  0  0  0  0  0  0
    4.8533    3.6400    0.0000 O   0  0  0  0  0  0  0  0  0  0
    2.7533    4.8533    0.0000 F   0  0  0  0  0  0  0  0  0  0
   -0.0000   -0.0000    0.0000 F   0  0  0  0  0  0  0  0  0  0
  1  2  4  0  0  0  0
  2  3  4  0  0  0  0
  3  4  4  0  0  0  0
  4  5  4  0  0  0  0
  5  6  4  0  0  0  0
  1  6  4  0  0  0  0
  4  7  1  0  0  0  0
  7  8  1  0  0  0  0
  7  9  2  0  0  0  0
  5 10  1  0  0  0  0
  2 11  1  0  0  0  0
M  END
>  <Compound Name> (5)
2,5-difluoronitrobenzene

>  <Formula> (5)
C6H3F2NO2

>  <LogP> (5)
1.89

>  <LUMO> (5)
-1.59

>  <MOL_ID> (5)
5

>  <Activity> (5)
-0.79

$$$$

